<?xml version="1.0" encoding="utf-8"?>
<feed xmlns="http://www.w3.org/2005/Atom">
    <id>https://rmzetti.github.io/osmos/index.html</id>
    <title>osmos::feed</title>
    <updated>2023-02-10T04:36:07.624Z</updated>
    <generator>osmosfeed 1.15.1</generator>
    <link rel="alternate" href="https://rmzetti.github.io/osmos/index.html"/>
    <link rel="self" href="https://rmzetti.github.io/osmos/feed.atom"/>
    <entry>
        <title type="html"><![CDATA[Hydrology, applied]]></title>
        <id>https://danmackinlay.name/notebook/hydrology.html</id>
        <link href="https://danmackinlay.name/notebook/hydrology.html"/>
        <updated>2023-02-10T03:27:31.000Z</updated>
        <summary type="html"><![CDATA[Introductions
Geology
MODFLOW
DPFEHM
FwiFlow
Geostats Framework
Swift
Dune/Dumx
ANUGA
Datasets
Exotics
Incoming
References

Refugees from Brazil’s Grande Seca drought of 1878
TBD: Ground water hydrology, surface water hydrology, coastal water hydrology…
UCSB Climate hazards data.
Introductions
AFAICT the go-to applied reference for groundwater is Anderson, Woessner, and Hunt (2015).
I have skimmed it and now I know just enough to be dangerous.
Fortunately I have my esteemed colleagues in hydrology, Stephanie Clark,
Sreekanth-Janardhanan and Tao Cui, and who explain the tricky bits to me.
Stephanie’s recommendations for tutorial introductions:
NGWA Groundwater fundamentals
Groundwater Basics – The Groundwater Foundation
Hydrogeology - Episode 4 - The Water Table, Aquifers, and Potentiometri…]]></summary>
        <author>
            <name>The Dan MacKinlay family of variably-well-considered enterprises on Dan MacKinlay</name>
        </author>
    </entry>
    <entry>
        <title type="html"><![CDATA[Yahoo will lay off 20% of staff, or 1600 people]]></title>
        <id>https://techcrunch.com/2023/02/09/yahoo-will-lay-off-20-of-staff-or-1600-people/</id>
        <link href="https://techcrunch.com/2023/02/09/yahoo-will-lay-off-20-of-staff-or-1600-people/"/>
        <updated>2023-02-10T03:10:14.000Z</updated>
        <summary type="html"><![CDATA[Comments]]></summary>
        <author>
            <name>Hacker News</name>
        </author>
    </entry>
    <entry>
        <title type="html"><![CDATA[A year after outcry, IRS still doesn’t offer taxpayers alternative to ID.me]]></title>
        <id>https://cyberscoop.com/irs-facial-recognition-identity-privacy/</id>
        <link href="https://cyberscoop.com/irs-facial-recognition-identity-privacy/"/>
        <updated>2023-02-10T02:29:05.000Z</updated>
        <summary type="html"><![CDATA[Comments]]></summary>
        <author>
            <name>Hacker News</name>
        </author>
    </entry>
    <entry>
        <title type="html"><![CDATA[Global Zoom layoffs hit NZ team - Reseller News]]></title>
        <id>CBMiSmh0dHBzOi8vd3d3LnJlc2VsbGVyLmNvLm56L2FydGljbGUvNzA1NDk0L2dsb2JhbC16b29tLWxheW9mZnMtaGl0LW56LXRlYW0v0gEA</id>
        <link href="https://news.google.com/rss/articles/CBMiSmh0dHBzOi8vd3d3LnJlc2VsbGVyLmNvLm56L2FydGljbGUvNzA1NDk0L2dsb2JhbC16b29tLWxheW9mZnMtaGl0LW56LXRlYW0v0gEA?oc=5"/>
        <updated>2023-02-10T02:00:04.000Z</updated>
        <summary type="html"><![CDATA[Global Zoom layoffs hit NZ team  Reseller News]]></summary>
        <author>
            <name>"Google NZ blog" - Google News</name>
        </author>
    </entry>
    <entry>
        <title type="html"><![CDATA[Why big tech companies need so many people]]></title>
        <id>https://thebuilderjr.substack.com/p/why-big-tech-companies-need-so-many</id>
        <link href="https://thebuilderjr.substack.com/p/why-big-tech-companies-need-so-many"/>
        <updated>2023-02-10T01:55:38.000Z</updated>
        <summary type="html"><![CDATA[Comments]]></summary>
        <author>
            <name>Hacker News</name>
        </author>
    </entry>
    <entry>
        <title type="html"><![CDATA[A new way to build with Large Language Models]]></title>
        <id>https://blog.fixie.ai/introducing-fixie-ai-a-new-way-to-build-with-large-language-models-d4e1aeee6b81</id>
        <link href="https://blog.fixie.ai/introducing-fixie-ai-a-new-way-to-build-with-large-language-models-d4e1aeee6b81"/>
        <updated>2023-02-10T00:47:57.000Z</updated>
        <summary type="html"><![CDATA[Comments]]></summary>
        <author>
            <name>Hacker News</name>
        </author>
    </entry>
    <entry>
        <title type="html"><![CDATA[Trunk-Based Development: Game Changers]]></title>
        <id>https://trunkbaseddevelopment.com/game-changers/</id>
        <link href="https://trunkbaseddevelopment.com/game-changers/"/>
        <updated>2023-02-10T00:23:10.000Z</updated>
        <summary type="html"><![CDATA[Comments]]></summary>
        <author>
            <name>Hacker News</name>
        </author>
    </entry>
    <entry>
        <title type="html"><![CDATA[Got a new title? You might be losing money - Yahoo Finance]]></title>
        <id>CBMiSmh0dHBzOi8vZmluYW5jZS55YWhvby5jb20vbmV3cy9nb3QtdGl0bGUtbWlnaHQtbG9zaW5nLW1vbmV5LTIzMzEwMDgxOS5odG1s0gFSaHR0cHM6Ly9maW5hbmNlLnlhaG9vLmNvbS9hbXBodG1sL25ld3MvZ290LXRpdGxlLW1pZ2h0LWxvc2luZy1tb25leS0yMzMxMDA4MTkuaHRtbA</id>
        <link href="https://news.google.com/rss/articles/CBMiSmh0dHBzOi8vZmluYW5jZS55YWhvby5jb20vbmV3cy9nb3QtdGl0bGUtbWlnaHQtbG9zaW5nLW1vbmV5LTIzMzEwMDgxOS5odG1s0gFSaHR0cHM6Ly9maW5hbmNlLnlhaG9vLmNvbS9hbXBodG1sL25ld3MvZ290LXRpdGxlLW1pZ2h0LWxvc2luZy1tb25leS0yMzMxMDA4MTkuaHRtbA?oc=5"/>
        <updated>2023-02-09T23:31:00.000Z</updated>
        <summary type="html"><![CDATA[Got a new title? You might be losing money  Yahoo Finance]]></summary>
        <author>
            <name>"Google NZ blog" - Google News</name>
        </author>
    </entry>
    <entry>
        <title type="html"><![CDATA[Dragon’s Lair Overhaul Black Edition (1/16th scale)]]></title>
        <id>https://newwavetoys.com/products/dragons-lair-x-replicade-overhaul-black</id>
        <link href="https://newwavetoys.com/products/dragons-lair-x-replicade-overhaul-black"/>
        <updated>2023-02-09T23:20:54.000Z</updated>
        <summary type="html"><![CDATA[Comments]]></summary>
        <author>
            <name>Hacker News</name>
        </author>
    </entry>
    <entry>
        <title type="html"><![CDATA[British Rail’s short experiment with travelling pubs (2020)]]></title>
        <id>https://www.ianvisits.co.uk/articles/british-rails-short-experiment-with-travelling-pubs-36068/</id>
        <link href="https://www.ianvisits.co.uk/articles/british-rails-short-experiment-with-travelling-pubs-36068/"/>
        <updated>2023-02-09T21:41:21.000Z</updated>
        <summary type="html"><![CDATA[Comments]]></summary>
        <author>
            <name>Hacker News</name>
        </author>
    </entry>
    <entry>
        <title type="html"><![CDATA[Scientists document two separate reservoirs of latent HIV in patients]]></title>
        <id>https://www.unc.edu/posts/2023/02/08/scientists-document-two-separate-reservoirs-of-latent-hiv-in-patients/</id>
        <link href="https://www.unc.edu/posts/2023/02/08/scientists-document-two-separate-reservoirs-of-latent-hiv-in-patients/"/>
        <updated>2023-02-09T21:35:09.000Z</updated>
        <summary type="html"><![CDATA[Comments]]></summary>
        <author>
            <name>Hacker News</name>
        </author>
    </entry>
    <entry>
        <title type="html"><![CDATA[Image Compression with Singular Value Decomposition]]></title>
        <id>http://timbaumann.info/svd-image-compression-demo/</id>
        <link href="http://timbaumann.info/svd-image-compression-demo/"/>
        <updated>2023-02-09T21:22:02.000Z</updated>
        <summary type="html"><![CDATA[Comments]]></summary>
        <author>
            <name>Hacker News</name>
        </author>
    </entry>
    <entry>
        <title type="html"><![CDATA[Crypto exchange Kraken to shut staking service, pay $30M fine in SEC settlement]]></title>
        <id>https://www.coindesk.com/policy/2023/02/09/us-securities-and-exchange-commission-sues-kraken-over-crypto-staking-services/</id>
        <link href="https://www.coindesk.com/policy/2023/02/09/us-securities-and-exchange-commission-sues-kraken-over-crypto-staking-services/"/>
        <updated>2023-02-09T20:58:08.000Z</updated>
        <summary type="html"><![CDATA[Comments]]></summary>
        <author>
            <name>Hacker News</name>
        </author>
    </entry>
    <entry>
        <title type="html"><![CDATA[Show HN: boxxy – Control where Linux programs put files, without symlinks]]></title>
        <id>https://github.com/queer/boxxy</id>
        <link href="https://github.com/queer/boxxy"/>
        <updated>2023-02-09T20:04:54.000Z</updated>
        <summary type="html"><![CDATA[Comments]]></summary>
        <author>
            <name>Hacker News</name>
        </author>
    </entry>
    <entry>
        <title type="html"><![CDATA[Oxide and the Chamber of Mysteries [video]]]></title>
        <id>https://www.youtube.com/watch?v=NVZ80_tbkbc</id>
        <link href="https://www.youtube.com/watch?v=NVZ80_tbkbc"/>
        <updated>2023-02-09T19:55:39.000Z</updated>
        <summary type="html"><![CDATA[Comments]]></summary>
        <author>
            <name>Hacker News</name>
        </author>
    </entry>
    <entry>
        <title type="html"><![CDATA[Healthcare, Selling Lemons, and the Price of Developer Experience]]></title>
        <id>https://css-tricks.com/?p=377169</id>
        <link href="https://css-tricks.com/healthcare-selling-lemons-and-the-price-of-developer-experience/"/>
        <updated>2023-02-09T19:45:48.000Z</updated>
        <summary type="html"><![CDATA[Every now and then, a one blog post is published and it spurs a reaction or response in others that are, in turn, published as blogs posts, and a theme starts to emerge. That’s what happened this past week and …
Healthcare, Selling Lemons, and the Price of Developer Experience originally published on CSS-Tricks, which is part of the DigitalOcean family. You should get the newsletter.]]></summary>
        <author>
            <name>Geoff Graham</name>
        </author>
    </entry>
    <entry>
        <title type="html"><![CDATA[Show HN: I made a tool that turns screenshots into dramatically angled photos]]></title>
        <id>https://www.screenstab.com/editor/</id>
        <link href="https://www.screenstab.com/editor/"/>
        <updated>2023-02-09T19:28:59.000Z</updated>
        <summary type="html"><![CDATA[Comments]]></summary>
        <author>
            <name>Hacker News</name>
        </author>
    </entry>
    <entry>
        <title type="html"><![CDATA[Solar panels disguised as terracotta tiles in Pompeii]]></title>
        <id>https://www.theartnewspaper.com/2023/02/06/ancient-pompeii-site-installs-invisible-solar-panels-that-look-like-roman-terracotta-tiles</id>
        <link href="https://www.theartnewspaper.com/2023/02/06/ancient-pompeii-site-installs-invisible-solar-panels-that-look-like-roman-terracotta-tiles"/>
        <updated>2023-02-09T18:45:31.000Z</updated>
        <summary type="html"><![CDATA[Comments]]></summary>
        <author>
            <name>Hacker News</name>
        </author>
    </entry>
    <entry>
        <title type="html"><![CDATA[The $20 an hour Cessna 172 experiment (2020)]]></title>
        <id>https://airfactsjournal.com/2020/11/the-20-an-hour-cessna-172-experiment/</id>
        <link href="https://airfactsjournal.com/2020/11/the-20-an-hour-cessna-172-experiment/"/>
        <updated>2023-02-09T18:07:56.000Z</updated>
        <summary type="html"><![CDATA[Comments]]></summary>
        <author>
            <name>Hacker News</name>
        </author>
    </entry>
    <entry>
        <title type="html"><![CDATA[Show HN: PodText.ai – Search anything said on a podcast, highlight text to play]]></title>
        <id>https://podtext.ai/</id>
        <link href="https://podtext.ai/"/>
        <updated>2023-02-09T17:33:01.000Z</updated>
        <summary type="html"><![CDATA[Comments]]></summary>
        <author>
            <name>Hacker News</name>
        </author>
    </entry>
    <entry>
        <title type="html"><![CDATA[Sabre/dav: open-source CardDAV, CalDAV and WebDAV server]]></title>
        <id>https://sabre.io/</id>
        <link href="https://sabre.io/"/>
        <updated>2023-02-09T17:08:27.000Z</updated>
        <summary type="html"><![CDATA[Comments]]></summary>
        <author>
            <name>Hacker News</name>
        </author>
    </entry>
    <entry>
        <title type="html"><![CDATA[There Are Only Four Billion Floats–So Test Them All (2014)]]></title>
        <id>https://randomascii.wordpress.com/2014/01/27/theres-only-four-billion-floatsso-test-them-all/</id>
        <link href="https://randomascii.wordpress.com/2014/01/27/theres-only-four-billion-floatsso-test-them-all/"/>
        <updated>2023-02-09T16:51:17.000Z</updated>
        <summary type="html"><![CDATA[Comments]]></summary>
        <author>
            <name>Hacker News</name>
        </author>
    </entry>
    <entry>
        <title type="html"><![CDATA[GitHub to lay off 10% and close all offices]]></title>
        <id>https://twitter.com/webology/status/1623722731819659269</id>
        <link href="https://twitter.com/webology/status/1623722731819659269"/>
        <updated>2023-02-09T16:41:50.000Z</updated>
        <summary type="html"><![CDATA[Comments]]></summary>
        <author>
            <name>Hacker News</name>
        </author>
    </entry>
    <entry>
        <title type="html"><![CDATA[A GPT in 60 Lines of NumPy]]></title>
        <id>https://jaykmody.com/blog/gpt-from-scratch/</id>
        <link href="https://jaykmody.com/blog/gpt-from-scratch/"/>
        <updated>2023-02-09T16:08:18.000Z</updated>
        <summary type="html"><![CDATA[Comments]]></summary>
        <author>
            <name>Hacker News</name>
        </author>
    </entry>
    <entry>
        <title type="html"><![CDATA[Netflix creates more confusion, Google’s AI costs company $100B ... - PR Daily]]></title>
        <id>CBMiXmh0dHBzOi8vd3d3LnByZGFpbHkuY29tL25ldGZsaXgtY3JlYXRlcy1tb3JlLWNvbmZ1c2lvbi1nb29nbGVzLWFpLWNvc3RzLWNvbXBhbnktMTAwbS1hbmQtbW9yZS_SAQA</id>
        <link href="https://news.google.com/rss/articles/CBMiXmh0dHBzOi8vd3d3LnByZGFpbHkuY29tL25ldGZsaXgtY3JlYXRlcy1tb3JlLWNvbmZ1c2lvbi1nb29nbGVzLWFpLWNvc3RzLWNvbXBhbnktMTAwbS1hbmQtbW9yZS_SAQA?oc=5"/>
        <updated>2023-02-09T15:59:20.000Z</updated>
        <summary type="html"><![CDATA[Netflix creates more confusion, Google’s AI costs company $100B ...  PR Daily]]></summary>
        <author>
            <name>"Google NZ blog" - Google News</name>
        </author>
    </entry>
    <entry>
        <title type="html"><![CDATA[6 new Microsoft Ads updates, including data exclusions and in ... - Search Engine Land]]></title>
        <id>CBMieWh0dHBzOi8vc2VhcmNoZW5naW5lbGFuZC5jb20vNi1uZXctbWljcm9zb2Z0LWFkcy11cGRhdGVzLWluY2x1ZGluZy1kYXRhLWV4Y2x1c2lvbnMtYW5kLWluLW1hcmtldC1hdWRpZW5jZS1zZWdtZW50cy0zOTI5MjjSAQA</id>
        <link href="https://news.google.com/rss/articles/CBMieWh0dHBzOi8vc2VhcmNoZW5naW5lbGFuZC5jb20vNi1uZXctbWljcm9zb2Z0LWFkcy11cGRhdGVzLWluY2x1ZGluZy1kYXRhLWV4Y2x1c2lvbnMtYW5kLWluLW1hcmtldC1hdWRpZW5jZS1zZWdtZW50cy0zOTI5MjjSAQA?oc=5"/>
        <updated>2023-02-09T15:06:00.000Z</updated>
        <summary type="html"><![CDATA[6 new Microsoft Ads updates, including data exclusions and in ...  Search Engine Land]]></summary>
        <author>
            <name>"Google NZ blog" - Google News</name>
        </author>
    </entry>
    <entry>
        <title type="html"><![CDATA[Moving Backgrounds]]></title>
        <id>https://css-tricks.com/?p=376723</id>
        <link href="https://css-tricks.com/moving-backgrounds/"/>
        <updated>2023-02-09T15:03:55.000Z</updated>
        <summary type="html"><![CDATA[We often think of background images as texture or something that provides contrast for legible content — in other words, not really content. If it was content, you’d probably reach for an <img> anyway, accessibility and whatnot.
But there are …
Moving Backgrounds originally published on CSS-Tricks, which is part of the DigitalOcean family. You should get the newsletter.]]></summary>
        <author>
            <name>Saleh Mubashar</name>
        </author>
    </entry>
    <entry>
        <title type="html"><![CDATA[The rise of green hydrogen in Latin America]]></title>
        <id>https://knowablemagazine.org/article/technology/2023/green-hydrogen-latin-america</id>
        <link href="https://knowablemagazine.org/article/technology/2023/green-hydrogen-latin-america"/>
        <updated>2023-02-09T15:00:00.000Z</updated>
        <summary type="html"><![CDATA[In anticipation of future demand, several projects are underway in the region to produce this clean energy source]]></summary>
        <author>
            <name>Pablo Fonseca Q.</name>
        </author>
    </entry>
    <entry>
        <title type="html"><![CDATA[The Future of Thunderbird]]></title>
        <id>https://blog.thunderbird.net/2023/02/the-future-of-thunderbird-why-were-rebuilding-from-the-ground-up/</id>
        <link href="https://blog.thunderbird.net/2023/02/the-future-of-thunderbird-why-were-rebuilding-from-the-ground-up/"/>
        <updated>2023-02-09T14:40:55.000Z</updated>
        <summary type="html"><![CDATA[Comments]]></summary>
        <author>
            <name>Hacker News</name>
        </author>
    </entry>
    <entry>
        <title type="html"><![CDATA[Launch HN: Activepieces (YC S22) – Open-Source Zapier Alternative]]></title>
        <id>https://news.ycombinator.com/item?id=34723989</id>
        <link href="https://news.ycombinator.com/item?id=34723989"/>
        <updated>2023-02-09T14:02:21.000Z</updated>
        <summary type="html"><![CDATA[Comments]]></summary>
        <author>
            <name>Hacker News</name>
        </author>
    </entry>
    <entry>
        <title type="html"><![CDATA[My network home setup – v4.0]]></title>
        <id>https://giuliomagnifico.blog/networking/2023/01/05/home-network_v4.html</id>
        <link href="https://giuliomagnifico.blog/networking/2023/01/05/home-network_v4.html"/>
        <updated>2023-02-09T14:00:49.000Z</updated>
        <summary type="html"><![CDATA[Comments]]></summary>
        <author>
            <name>Hacker News</name>
        </author>
    </entry>
    <entry>
        <title type="html"><![CDATA[AirPods Pro case converted from Lightning to USB-C with open-source PCB]]></title>
        <id>https://www.engadget.com/a-robotics-engineer-is-trying-to-make-the-airpods-pro-easier-to-repair-184249580.html</id>
        <link href="https://www.engadget.com/a-robotics-engineer-is-trying-to-make-the-airpods-pro-easier-to-repair-184249580.html"/>
        <updated>2023-02-09T12:49:06.000Z</updated>
        <summary type="html"><![CDATA[Comments]]></summary>
        <author>
            <name>Hacker News</name>
        </author>
    </entry>
    <entry>
        <title type="html"><![CDATA[Diffusion of innovations]]></title>
        <id>https://danmackinlay.name/notebook/innovation_diffusion.html</id>
        <link href="https://danmackinlay.name/notebook/innovation_diffusion.html"/>
        <updated>2023-02-09T11:45:28.000Z</updated>
        <summary type="html"><![CDATA[Incoming
References
Placeholder.
Models such as the Bass diffusion model impose an epidemiological structure on the contagion of products, with a survival analysis flavour.
Or, if you’d like, memetics but for technical ideas rather than beliefs.

Incoming
Getting The Word Out—by Steven Johnson
I wrote about the disappointing—though I suppose not surprising—lack of coverage of the death of Dilip Mahalanabis, the Bangladeshi doctor who played a critical role in popularizing Oral Rehydration Therapy, the amazingly simply medical intervention that has saved millions of lives around the world over the past fifty years.
I noted that as far as I could tell, no mainstream news organization outside of India had run so much as a brief obituary of Mahalanabis, despite the heroic nature of his initial…]]></summary>
        <author>
            <name>The Dan MacKinlay family of variably-well-considered enterprises on Dan MacKinlay</name>
        </author>
    </entry>
    <entry>
        <title type="html"><![CDATA[Shells]]></title>
        <id>https://danmackinlay.name/notebook/shells.html</id>
        <link href="https://danmackinlay.name/notebook/shells.html"/>
        <updated>2023-02-09T11:44:02.000Z</updated>
        <summary type="html"><![CDATA[Your list of horrible alternatives

bash
fish
PowerShell
nushell
crush
dash
zsh
cosh
oils
xonsh
Plumbum
Elvish
neugram

General tips

Switching shells
Next-level piping

Realistically you’re using bash; now what?

The only thing worse than shell scripting is doing without shell scripting.
Half a century on and we are still not great at bespoke automation of tasks.
The best option is to have a grad student or an intern to do things for you;
but what if you are the grad student or the intern?
Unix-esque (i.e. POSIX.2) shell scripting is one passable methods for automation of some tasks for those without underpaid human assistants.
It is universally available, or at least nearly so, and indeed useful.
Except the problem is that shell scripting is a ghastly quagmire of chaos, and, as usual, fo…]]></summary>
        <author>
            <name>The Dan MacKinlay family of variably-well-considered enterprises on Dan MacKinlay</name>
        </author>
    </entry>
    <entry>
        <title type="html"><![CDATA[Picture Perfect: Meet Pixo, A Photo Editor For Your End Users]]></title>
        <id>https://smashingmagazine.com/2023/02/pixo-photo-editor/</id>
        <link href="https://smashingmagazine.com/2023/02/pixo-photo-editor/"/>
        <updated>2023-02-09T09:00:00.000Z</updated>
        <summary type="html"><![CDATA[With so many image editing services available nowadays, it’s good to have one good solution that is applicable for all websites and web apps that need to provide image editing as a feature. Hristo Chakarov explains how Pixo Editor’s easy integration (just a few JavaScript lines) and rich API can save your time and improve your end users’ workflow.]]></summary>
        <author>
            <name>hello@smashingmagazine.com (Hristo Chakarov)</name>
        </author>
    </entry>
    <entry>
        <title type="html"><![CDATA[Emacs StackExchange]]></title>
        <id>https://emacs.stackexchange.com/questions?tab=Votes</id>
        <link href="https://emacs.stackexchange.com/questions?tab=Votes"/>
        <updated>2023-02-09T08:47:07.000Z</updated>
        <summary type="html"><![CDATA[Comments]]></summary>
        <author>
            <name>Hacker News</name>
        </author>
    </entry>
    <entry>
        <title type="html"><![CDATA[See inside a 958-foot cargo ship (2022)]]></title>
        <id>https://www.businessinsider.com/cargo-ship-living-quarters-pictures-tour-youtube-video-2021-11</id>
        <link href="https://www.businessinsider.com/cargo-ship-living-quarters-pictures-tour-youtube-video-2021-11"/>
        <updated>2023-02-09T07:46:10.000Z</updated>
        <summary type="html"><![CDATA[Comments]]></summary>
        <author>
            <name>Hacker News</name>
        </author>
    </entry>
    <entry>
        <title type="html"><![CDATA[Bayes neural nets via subsetting weights]]></title>
        <id>https://danmackinlay.name/notebook/nn_bayes_subnet.html</id>
        <link href="https://danmackinlay.name/notebook/nn_bayes_subnet.html"/>
        <updated>2023-02-09T04:44:28.000Z</updated>
        <summary type="html"><![CDATA[Is this even principled?
How to update a deterministic parameter?
Last layer
References

Bayes NNs where only some weights are random and others are fixed.
This raises various difficulties — how to you update a fixed parameter?
Is this even principled?
Sharma et al. (2022)
How to update a deterministic parameter?
FRom the perspective of bayes, parameters we do not update have zero variance.
And yet we do update them by SGD.
What does that mean? How can we make that statistically well-posed?
Last layer
The most famous one.
See Bayes last layer.
References
“Bayesian Deep Learning via Subnetwork Inference.” In Proceedings of the 38th International Conference on Machine Learning, 2510–21. PMLR.


Daxberger, Erik, Eric Nalisnick, James Urquhart Allingham, Javier Antoran, and Jose Miguel Hernandez-Lobato. 2020. “Expressive yet Tractable Bayesian Deep Learning via Subnetwork Inference.” In.


Izmailov, Pavel, Wesley J. Maddox, Polina Kirichenko, Timur Garipov, Dmitry Vetrov, and Andrew Gordon Wilson. 2020. “Subspace Inference for Bayesian Deep Learning.” In Proceedings of The 35th Uncertainty in Artificial Intelligence Conference, 1169–79. PMLR.


Ke, Xiongwen, and Yanan Fan. 2022. “On the Optimization and Pruning for Bayesian Deep Learning.” arXiv.


Sharma, Mrinank, Sebastian Farquhar, Eric Nalisnick, and Tom Rainforth. 2022. “Do Bayesian Neural Networks Need To Be Fully Stochastic?” arXiv.


Tran, M.-N., N. Nguyen, D. Nott, and R. Kohn. 2019. “Bayesian Deep Net GLM and GLMM.” Journal of Computational and Graphical Statistics 29 (ja): 1–40.]]></summary>
        <author>
            <name>The Dan MacKinlay family of variably-well-considered enterprises on Dan MacKinlay</name>
        </author>
    </entry>
    <entry>
        <title type="html"><![CDATA[Ask HN: Is “prompt injection” going to be a new common vulnerability?]]></title>
        <id>https://news.ycombinator.com/item?id=34719586</id>
        <link href="https://news.ycombinator.com/item?id=34719586"/>
        <updated>2023-02-09T03:59:32.000Z</updated>
        <summary type="html"><![CDATA[Comments]]></summary>
        <author>
            <name>Hacker News</name>
        </author>
    </entry>
    <entry>
        <title type="html"><![CDATA[Disney lays off 7,000 employees as subscribers decline - The Daily Star]]></title>
        <id>CBMiiAFodHRwczovL3d3dy50aGVkYWlseXN0YXIubmV0L3RlY2gtc3RhcnR1cC9zY2llbmNlLWdhZGdldHMtYW5kLXRlY2gvdGVjaC1uZXdzL25ld3MvZGlzbmV5LWxheXMtNzAwMC1lbXBsb3llZXMtc3Vic2NyaWJlcnMtZGVjbGluZS0zMjQzMTE20gGMAWh0dHBzOi8vd3d3LnRoZWRhaWx5c3Rhci5uZXQvdGVjaC1zdGFydHVwL3NjaWVuY2UtZ2FkZ2V0cy1hbmQtdGVjaC90ZWNoLW5ld3MvbmV3cy9kaXNuZXktbGF5cy03MDAwLWVtcGxveWVlcy1zdWJzY3JpYmVycy1kZWNsaW5lLTMyNDMxMTY_YW1w</id>
        <link href="https://news.google.com/rss/articles/CBMiiAFodHRwczovL3d3dy50aGVkYWlseXN0YXIubmV0L3RlY2gtc3RhcnR1cC9zY2llbmNlLWdhZGdldHMtYW5kLXRlY2gvdGVjaC1uZXdzL25ld3MvZGlzbmV5LWxheXMtNzAwMC1lbXBsb3llZXMtc3Vic2NyaWJlcnMtZGVjbGluZS0zMjQzMTE20gGMAWh0dHBzOi8vd3d3LnRoZWRhaWx5c3Rhci5uZXQvdGVjaC1zdGFydHVwL3NjaWVuY2UtZ2FkZ2V0cy1hbmQtdGVjaC90ZWNoLW5ld3MvbmV3cy9kaXNuZXktbGF5cy03MDAwLWVtcGxveWVlcy1zdWJzY3JpYmVycy1kZWNsaW5lLTMyNDMxMTY_YW1w?oc=5"/>
        <updated>2023-02-09T03:22:41.000Z</updated>
        <summary type="html"><![CDATA[Disney lays off 7,000 employees as subscribers decline  The Daily Star]]></summary>
        <author>
            <name>"Google NZ blog" - Google News</name>
        </author>
    </entry>
    <entry>
        <title type="html"><![CDATA[Podman vs. Docker: Comparing the two containerization tools]]></title>
        <id>https://www.linode.com/docs/guides/podman-vs-docker/</id>
        <link href="https://www.linode.com/docs/guides/podman-vs-docker/"/>
        <updated>2023-02-09T02:46:38.000Z</updated>
        <summary type="html"><![CDATA[Comments]]></summary>
        <author>
            <name>Hacker News</name>
        </author>
    </entry>
    <entry>
        <title type="html"><![CDATA[My 2022 self was wrong about meditation, monitors, and sleep]]></title>
        <id>https://guzey.com/2022-lessons/</id>
        <link href="https://guzey.com/2022-lessons/"/>
        <updated>2023-02-09T00:25:31.000Z</updated>
        <summary type="html"><![CDATA[Comments]]></summary>
        <author>
            <name>Hacker News</name>
        </author>
    </entry>
    <entry>
        <title type="html"><![CDATA[Predictive coding]]></title>
        <id>https://danmackinlay.name/notebook/predictive_coding.html</id>
        <link href="https://danmackinlay.name/notebook/predictive_coding.html"/>
        <updated>2023-02-09T00:11:37.000Z</updated>
        <summary type="html"><![CDATA[Layperson intros
“Free energy principle”
Actual predictions about minds arising from predictive coding models

Dark room problem

Computable
Incoming
References

Maybe related (?) prediction processes.
To learn: Is this what the information-dynamics folks are wondering about also, e.g. Ay et al. (2008) or Tishby and Polani (2011)?
Perhaps this overvew of different brain models will place it in context:
Neural Annealing: Toward a Neural Theory of Everything.
There is some interesting hype in this area, along the lines of understanding biological learning as machine learning:
Predictive Coding has been Unified with Backpropagation, concerning Millidge, Tschantz, and Buckley (2020b)..
I have not read the article or the explanation properly, but at first glance it indicates that perhaps I do n…]]></summary>
        <author>
            <name>The Dan MacKinlay family of variably-well-considered enterprises on Dan MacKinlay</name>
        </author>
    </entry>
    <entry>
        <title type="html"><![CDATA[Covid drug drives viral mutations – and now some want to halt its use]]></title>
        <id>https://www.nature.com/articles/d41586-023-00347-z</id>
        <link href="https://www.nature.com/articles/d41586-023-00347-z"/>
        <updated>2023-02-08T23:51:19.000Z</updated>
        <summary type="html"><![CDATA[Comments]]></summary>
        <author>
            <name>Hacker News</name>
        </author>
    </entry>
    <entry>
        <title type="html"><![CDATA[Photoprism – open-source Google Photos Alternative]]></title>
        <id>https://www.photoprism.app/</id>
        <link href="https://www.photoprism.app/"/>
        <updated>2023-02-08T23:06:04.000Z</updated>